input/IEEE300busPsse30.raw
0,   100.00, 30, 0, 1,  60.00     / PSS(R)E 30 RAW created by rawd30  FRI, AUG 08 2014  11:18
 IEEE 300-BUS TEST SYSTEM
 IEEE 300-BUS TEST SYSTEM
     1,' 1          ', 115.0000,1,     0.000,     0.000,   1,   1,1.02690,   6.5288,   1
     2,' 1          ', 115.0000,1,     0.000,     0.000,   1,   1,1.03396,   8.2862,   1
     3,' 1          ', 230.0000,1,     0.000,     0.000,   1,   1,0.99356,   7.2291,   1
     4,' 1          ', 345.0000,1,     0.000,     0.000,   1,   1,1.02717,   5.2180,   1
     5,' 1          ', 115.0000,1,     0.000,     0.000,   1,   1,1.01738,   5.2598,   1
     6,' 1          ', 115.0000,1,     0.000,     0.000,   1,   1,1.02944,   7.5481,   1
     7,' 1          ', 230.0000,1,     0.000,     0.000,   1,   1,0.99006,   6.7900,   1
     8,' 1          ', 115.0000,2,     0.000,     0.000,   1,   1,1.01365,   2.8750,   1
     9,' 1          ', 115.0000,1,     0.000,     0.000,   1,   1,1.00205,   3.4000,   1
    10,' 1          ', 230.0000,2,     0.000,     0.000,   1,   1,1.01857,   1.8898,   1
    11,' 1          ', 115.0000,1,     0.000,     0.000,   1,   1,1.00472,   2.9867,   1
    12,' 1          ', 230.0000,1,     0.000,     0.000,   1,   1,0.99500,   5.7873,   1
    13,' 1          ', 115.0000,1,     0.000,     0.000,   1,   1,0.99629,  -0.0330,   1
    14,' 1          ', 115.0000,1,     0.000,     0.000,   1,   1,0.99682,  -4.4854,   1
    15,' 1          ', 115.0000,1,     0.000,     0.000,   1,   1,1.03189,  -8.3929,   1
    16,' 1          ', 345.0000,1,     0.000,     0.000,   1,   1,1.02832,  -2.4447,   1
    17,' 1          ', 115.0000,1,     0.000,     0.000,   1,   1,1.06270, -12.9473,   1
    19,' 1          ', 230.0000,1,     0.000,     0.000,   1,   1,0.97966,   1.5782,   1
    20,' 1          ', 115.0000,2,     0.000,     0.000,   1,   1,0.99919,  -1.9447,   1
    21,' 1          ', 230.0000,1,     0.000,     0.000,   1,   1,0.97322,   2.1495,   1
    22,' 1          ', 115.0000,1,     0.000,     0.000,   1,   1,0.99476,  -1.4599,   1
    23,' 1          ', 115.0000,1,     0.000,     0.000,   1,   1,1.04967,   4.4515,   1
    24,' 1          ', 230.0000,1,     0.000,     0.000,   1,   1,1.00486,   6.5464,   1
    25,' 1          ', 115.0000,1,     0.000,     0.000,   1,   1,1.02277,   1.9518,   1
    26,' 1          ', 115.0000,1,     0.000,     0.000,   1,   1,0.99772,  -1.2237,   1
    27,' 1          ', 115.0000,1,     0.000,     0.000,   1,   1,0.97375,  -4.3901,   1
    33,' 1          ', 115.0000,1,     0.000,     0.000,   1,   1,1.02326, -12.1619,   1
    34,' 1          ', 345.0000,1,     0.000,     0.000,   1,   1,1.03966,  -8.0604,   1
    35,' 1          ', 115.0000,1,     0.000,     0.000,   1,   1,0.97552, -26.1717,   1
    36,' 1          ', 230.0000,1,     0.000,     0.000,   1,   1,1.00086, -23.0343,   1
    37,' 1          ', 115.0000,1,     0.000,     0.000,   1,   1,1.01897, -11.3210,   1
    38,' 1          ', 115.0000,1,     0.000,     0.000,   1,   1,1.01908, -12.7088,   1
    39,' 1          ', 345.0000,1,     0.000,     0.000,   1,   1,1.05207,  -5.9280,   1
    40,' 1          ', 115.0000,1,     0.000,     0.000,   1,   1,1.02044, -12.9026,   1
    41,' 1          ', 115.0000,1,     0.000,     0.000,   1,   1,1.02792, -10.5756,   1
    42,' 1          ', 345.0000,1,     0.000,     0.000,   1,   1,1.04310,  -7.5653,   1
    43,' 1          ', 115.0000,1,     0.000,     0.000,   1,   1,1.00006, -17.1718,   1
    44,' 1          ', 115.0000,1,     0.000,     0.000,   1,   1,1.00857, -17.9946,   1
    45,' 1          ', 230.0000,1,     0.000,     0.000,   1,   1,1.02181, -15.3036,   1
    46,' 1          ', 345.0000,1,     0.000,     0.000,   1,   1,1.03302, -12.0756,   1
    47,' 1          ', 115.0000,1,     0.000,     0.000,   1,   1,0.97779, -23.6334,   1
    48,' 1          ', 115.0000,1,     0.000,     0.000,   1,   1,1.00130, -16.2322,   1
    49,' 1          ', 115.0000,1,     0.000,     0.000,   1,   1,1.04729,  -2.9848,   1
    51,' 1          ', 115.0000,1,     0.000,     0.000,   1,   1,1.02448,  -8.3611,   1
    52,' 1          ', 115.0000,1,     0.000,     0.000,   1,   1,0.99752, -12.3933,   1
    53,' 1          ', 115.0000,1,     0.000,     0.000,   1,   1,0.99557, -18.0519,   1
    54,' 1          ', 115.0000,1,     0.000,     0.000,   1,   1,1.00504, -16.8140,   1
    55,' 1          ', 115.0000,1,     0.000,     0.000,   1,   1,1.01533, -12.9793,   1
    57,' 1          ', 115.0000,1,     0.000,     0.000,   1,   1,1.03380,  -9.5826,   1
    58,' 1          ', 115.0000,1,     0.000,     0.000,   1,   1,0.99148,  -7.9276,   1
    59,' 1          ', 115.0000,1,     0.000,     0.000,   1,   1,0.97860,  -7.3324,   1
    60,' 1          ', 230.0000,1,     0.000,     0.000,   1,   1,1.02653, -10.7945,   1
    61,' 1          ', 115.0000,1,     0.000,     0.000,   1,   1,0.99057,  -5.5647,   1
    62,' 1          ', 230.0000,1,     0.000,     0.000,   1,   1,1.01682,  -3.4067,   1
    63,' 1          ', 115.0000,2,     0.000,     0.000,   1,   1,0.95830, -19.7682,   1
    64,' 1          ', 230.0000,1,     0.000,     0.000,   1,   1,0.94839, -15.1559,   1
    69,' 1          ', 115.0000,1,     0.000,     0.000,   1,   1,0.96277, -26.0894,   1
    70,' 1          ', 115.0000,1,     0.000,     0.000,   1,   1,0.95115, -35.6166,   1
    71,' 1          ', 115.0000,1,     0.000,     0.000,   1,   1,0.97923, -30.3357,   1
    72,' 1          ', 115.0000,1,     0.000,     0.000,   1,   1,0.96946, -27.9279,   1
    73,' 1          ', 115.0000,1,     0.000,     0.000,   1,   1,0.97739, -26.2284,   1
    74,' 1          ', 230.0000,1,     0.000,     0.000,   1,   1,0.99635, -22.4718,   1
    76,' 1          ', 115.0000,2,     0.000,     0.000,   1,   1,0.96310, -26.9925,   1
    77,' 1          ', 115.0000,1,     0.000,     0.000,   1,   1,0.98366, -25.3891,   1
    78,' 1          ', 115.0000,1,     0.000,     0.000,   1,   1,0.98989, -24.4986,   1
    79,' 1          ', 115.0000,1,     0.000,     0.000,   1,   1,0.98187, -25.4225,   1
    80,' 1          ', 115.0000,1,     0.000,     0.000,   1,   1,0.98709, -25.4092,   1
    81,' 1          ', 345.0000,1,     0.000,     0.000,   1,   1,1.03336, -19.2951,   1
    84,' 1          ', 115.0000,2,     0.000,     0.000,   1,   1,1.02500, -17.6109,   1
    85,' 1          ', 230.0000,1,     0.000,     0.000,   1,   1,0.98671, -17.6539,   1
    86,' 1          ', 230.0000,1,     0.000,     0.000,   1,   1,0.99009, -14.0910,   1
    87,' 1          ', 230.0000,1,     0.000,     0.000,   1,   1,0.99033,  -7.5029,   1
    88,' 1          ', 230.0000,1,     0.000,     0.000,   1,   1,1.01480, -21.3950,   1
    89,' 1          ', 115.0000,1,     0.000,     0.000,   1,   1,1.03078, -11.0723,   1
    90,' 1          ', 115.0000,1,     0.000,     0.000,   1,   1,1.02627, -11.2551,   1
    91,' 1          ', 115.0000,2,     0.000,     0.000,   1,   1,1.05200,  -9.3291,   1
    92,' 1          ', 115.0000,2,     0.000,     0.000,   1,   1,1.05200,  -6.2309,   1
    94,' 1          ', 115.0000,1,     0.000,     0.000,   1,   1,0.99185,  -9.1942,   1
    97,' 1          ', 115.0000,1,     0.000,     0.000,   1,   1,1.01802, -13.1757,   1
    98,' 1          ', 115.0000,2,     0.000,     0.000,   1,   1,1.00000, -14.5436,   1
    99,' 1          ', 115.0000,1,     0.000,     0.000,   1,   1,0.98932, -20.2941,   1
   100,' 1          ', 115.0000,1,     0.000,     0.000,   1,   1,1.00581, -14.3813,   1
   102,' 1          ', 115.0000,1,     0.000,     0.000,   1,   1,1.00045, -15.1621,   1
   103,' 1          ', 115.0000,1,     0.000,     0.000,   1,   1,1.02856, -12.0786,   1
   104,' 1          ', 115.0000,1,     0.000,     0.000,   1,   1,0.99554, -17.2885,   1
   105,' 1          ', 115.0000,1,     0.000,     0.000,   1,   1,1.02204, -12.9846,   1
   107,' 1          ', 115.0000,1,     0.000,     0.000,   1,   1,1.00916, -16.1103,   1
   108,' 1          ', 115.0000,2,     0.000,     0.000,   1,   1,0.99000, -20.2826,   1
   109,' 1          ', 115.0000,1,     0.000,     0.000,   1,   1,0.97483, -26.2438,   1
   110,' 1          ', 115.0000,1,     0.000,     0.000,   1,   1,0.97282, -24.8282,   1
   112,' 1          ', 115.0000,1,     0.000,     0.000,   1,   1,0.97245, -28.9062,   1
   113,' 1          ', 115.0000,1,     0.000,     0.000,   1,   1,0.97006, -25.7619,   1
   114,' 1          ', 115.0000,1,     0.000,     0.000,   1,   1,0.97462, -28.8118,   1
   115,' 2          ', 115.0000,1,     0.000,     0.000,   2,   2,0.90038,  12.1890,   1
   116,' 2          ', 115.0000,1,     0.000,     0.000,   2,   2,0.98336,  18.6330,   1
   117,' 2          ', 115.0000,1,     0.000,   325.000,   2,   2,0.90620,  25.4506,   1
   118,' 2          ', 115.0000,1,     0.000,     0.000,   2,   2,0.90151,  26.6008,   1
   119,' 2          ', 115.0000,2,     0.000,     0.000,   2,   2,1.04350,  41.5441,   1
   120,' 2          ', 115.0000,1,     0.000,    55.000,   2,   2,1.00716,  36.7423,   1
   121,' 2          ', 115.0000,1,     0.000,     0.000,   2,   2,0.86969,  15.8911,   1
   122,' 2          ', 115.0000,1,     0.000,     0.000,   2,   2,0.88431,   9.5764,   1
   123,' 2          ', 115.0000,1,     0.000,     0.000,   2,   2,0.91738,   4.2024,   1
   124,' 2          ', 115.0000,2,     0.000,     0.000,   2,   2,0.96485,  15.4278,   1
   125,' 2          ', 115.0000,2,     0.000,     0.000,   2,   2,0.94048,  -6.2517,   1
   126,' 2          ', 115.0000,1,     0.000,     0.000,   2,   2,0.93914,  -1.4935,   1
   127,' 2          ', 230.0000,1,     0.000,     0.000,   2,   2,0.97399,  -7.1624,   1
   128,' 2          ', 230.0000,1,     0.000,     0.000,   2,   2,0.98878,  -5.1250,   1
   129,' 2          ', 230.0000,1,     0.000,     0.000,   2,   2,0.98640,  -4.2641,   1
   130,' 2          ', 230.0000,1,     0.000,     0.000,   2,   2,1.01196,   6.3887,   1
   131,' 2          ', 230.0000,1,     0.000,     0.000,   2,   2,0.98194,   6.7268,   1
   132,' 2          ', 230.0000,1,     0.000,     0.000,   2,   2,0.99577,   4.6684,   1
   133,' 2          ', 230.0000,1,     0.000,     0.000,   2,   2,0.99029,  -7.3706,   1
   134,' 2          ', 230.0000,1,     0.000,     0.000,   2,   2,1.00976,  -6.3717,   1
   135,' 2          ', 230.0000,1,     0.000,     0.000,   2,   2,1.01243,  -6.5111,   1
   136,' 2          ', 230.0000,1,     0.000,     0.000,   2,   2,1.04568,  -1.1467,   1
   137,' 2          ', 230.0000,1,     0.000,     0.000,   2,   2,1.04237,  -7.4151,   1
   138,' 2          ', 230.0000,2,     0.000,     0.000,   2,   2,1.05139, -16.8720,   1
   139,' 2          ', 115.0000,1,     0.000,     0.000,   2,   2,1.01032,  -9.3208,   1
   140,' 2          ', 230.0000,1,     0.000,     0.000,   2,   2,1.03973,  -9.2007,   1
   141,' 2          ', 230.0000,2,     0.000,     0.000,   2,   2,1.05100,  -5.4939,   1
   142,' 2          ', 230.0000,1,     0.000,     0.000,   2,   2,1.01330,  -7.5277,   1
   143,' 2          ', 230.0000,2,     0.000,     0.000,   2,   2,1.04350,  -0.1795,   1
   144,' 2          ', 230.0000,1,     0.000,     0.000,   2,   2,1.01666,  -3.1528,   1
   145,' 2          ', 230.0000,1,     0.000,     0.000,   2,   2,1.00760,  -4.8510,   1
   146,' 2          ', 230.0000,2,     0.000,     0.000,   2,   2,1.05239,  -0.7414,   1
   147,' 2          ', 230.0000,2,     0.000,     0.000,   2,   2,1.05280,   3.2133,   1
   148,' 2          ', 230.0000,1,     0.000,     0.000,   2,   2,1.05770,  -4.0254,   1
   149,' 2          ', 230.0000,2,     0.000,     0.000,   2,   2,1.07319,   0.8420,   1
   150,' 2          ', 230.0000,1,     0.000,     0.000,   2,   2,0.98244,   7.0125,   1
   151,' 2          ', 230.0000,1,     0.000,     0.000,   2,   2,0.99759,   5.0675,   1
   152,' 2          ', 230.0000,2,     0.000,     0.000,   2,   2,1.05350,   6.1763,   1
   153,' 2          ', 230.0000,2,     0.000,     0.000,   2,   2,1.04350,   6.4577,   1
   154,' 2          ', 115.0000,1,     0.000,    34.500,   2,   2,0.96512,  -6.2114,   1
   155,' 2          ', 230.0000,1,     0.000,     0.000,   2,   2,1.01419,   1.9837,   1
   156,' 2          ', 115.0000,2,     0.000,     0.000,   2,   2,0.95959,   0.3955,   1
   157,' 2          ', 230.0000,1,     0.000,     0.000,   2,   2,0.90469,  11.2536,   1
   158,' 2          ', 230.0000,1,     0.000,     0.000,   2,   2,0.91676,  10.6324,   1
   159,' 2          ', 230.0000,1,     0.000,     0.000,   2,   2,0.89562,  15.6140,   1
   160,' 2          ', 230.0000,1,     0.000,     0.000,   2,   2,0.93393,  13.2254,   1
   161,' 2          ', 230.0000,1,     0.000,     0.000,   2,   2,1.03467,   4.5907,   1
   162,' 2          ', 230.0000,1,     0.000,     0.000,   2,   2,0.98918,  13.5797,   1
   163,' 2          ', 230.0000,1,     0.000,     0.000,   2,   2,1.03479,  -2.6510,   1
   164,' 2          ', 230.0000,1,     0.000,  -212.000,   2,   2,0.97995,   4.6867,   1
   165,' 2          ', 230.0000,1,     0.000,     0.000,   2,   2,0.99877,  21.4149,   1
   166,' 2          ', 230.0000,1,     0.000,  -103.000,   2,   2,0.99645,  25.3349,   1
   167,' 2          ', 230.0000,1,     0.000,     0.000,   2,   2,0.95491,  -6.8521,   1
   168,' 2          ', 230.0000,1,     0.000,     0.000,   2,   2,0.98880,  -5.1508,   1
   169,' 2          ', 230.0000,1,     0.000,     0.000,   2,   2,0.97024,  -6.7217,   1
   170,' 2          ', 115.0000,2,     0.000,     0.000,   2,   2,0.92111,   1.3061,   1
   171,' 2          ', 115.0000,2,     0.000,     0.000,   2,   2,0.97087, -11.9547,   1
   172,' 2          ', 115.0000,1,     0.000,     0.000,   2,   2,1.02401, -11.7672,   1
   173,' 2          ', 115.0000,1,     0.000,    53.000,   2,   2,0.98290, -17.9275,   1
   174,' 2          ', 115.0000,1,     0.000,     0.000,   2,   2,1.06207,  -8.1925,   1
   175,' 2          ', 115.0000,1,     0.000,     0.000,   2,   2,0.97280, -12.0087,   1
   176,' 2          ', 115.0000,2,     0.000,     0.000,   2,   2,1.05220,  -0.1166,   1
   177,' 2          ', 115.0000,2,     0.000,     0.000,   2,   2,1.00759,  -4.0922,   1
   178,' 2          ', 115.0000,1,     0.000,     0.000,   2,   2,0.93927, -11.1997,   1
   179,' 2          ', 115.0000,1,     0.000,    45.000,   2,   2,0.96923, -13.9728,   1
   180,' 2          ', 115.0000,1,     0.000,     0.000,   2,   2,0.97880,  -7.7655,   1
   181,' 2          ', 230.0000,1,     0.000,     0.000,   2,   2,1.04654,  -7.9375,   1
   182,' 2          ', 230.0000,1,     0.000,     0.000,   2,   2,1.04205,  -9.9552,   1
   183,' 2          ', 115.0000,1,     0.000,     0.000,   2,   2,0.97142,   3.0499,   1
   184,' 2          ', 230.0000,1,     0.000,     0.000,   2,   2,1.03375,  -5.1976,   1
   185,' 2          ', 230.0000,2,     0.000,     0.000,   2,   2,1.05220,  -2.6987,   1
   186,' 2          ', 230.0000,2,     0.000,     0.000,   2,   2,1.06500,  -4.1705,   1
   187,' 2          ', 230.0000,2,     0.000,     0.000,   2,   2,1.06500,  -5.1921,   1
   188,' 2          ', 230.0000,1,     0.000,     0.000,   2,   2,1.04900,  -7.2777,   1
   189,' 3          ',  66.0000,1,     0.000,     0.000,   3,   3,0.99744, -26.2445,   1
   190,' 3          ', 345.0000,2,     0.000,  -150.000,   3,   3,1.05510, -21.0433,   1
   191,' 3          ', 230.0000,2,     0.000,     0.000,   3,   3,1.04350,  11.7906,   1
   192,' 3          ', 230.0000,1,     0.000,     0.000,   3,   3,0.93803, -11.6239,   1
   193,' 3          ',  66.0000,1,     0.000,     0.000,   3,   3,0.98939, -26.4860,   1
   194,' 3          ', 345.0000,1,     0.000,     0.000,   3,   3,1.04838, -19.6276,   1
   195,' 3          ', 345.0000,1,     0.000,     0.000,   3,   3,1.03535, -21.2059,   1
   196,' 3          ', 115.0000,1,     0.000,     0.000,   3,   3,0.96952, -25.7314,   1
   197,' 3          ', 115.0000,1,     0.000,     0.000,   3,   3,0.99066, -24.1339,   1
   198,' 3          ', 115.0000,2,     0.000,     0.000,   3,   3,1.01500, -21.0006,   1
   199,' 3          ', 115.0000,1,     0.000,     0.000,   3,   3,0.95285, -26.4595,   1
   200,' 3          ', 115.0000,1,     0.000,     0.000,   3,   3,0.95508, -26.3491,   1
   201,' 1          ',  66.0000,1,     0.000,     0.000,   1,   1,0.96878, -27.9104,   1
   202,' 3          ',  66.0000,1,     0.000,     0.000,   3,   3,0.99074, -25.7507,   1
   203,' 3          ', 115.0000,1,     0.000,     0.000,   3,   3,1.00328, -22.7689,   1
   204,' 3          ',  66.0000,1,     0.000,     0.000,   3,   3,0.97122, -26.0961,   1
   205,' 3          ',  66.0000,1,     0.000,     0.000,   3,   3,0.98340, -26.4555,   1
   206,' 3          ',  66.0000,1,     0.000,     0.000,   3,   3,0.99920, -27.7186,   1
   207,' 1          ',  66.0000,1,     0.000,     0.000,   1,   1,1.01397, -27.7146,   1
   208,' 3          ',  66.0000,1,     0.000,     0.000,   3,   3,0.99267, -26.6650,   1
   209,' 3          ',  66.0000,1,     0.000,     0.000,   3,   3,0.99984, -26.0606,   1
   210,' 3          ', 115.0000,1,     0.000,     0.000,   3,   3,0.97882, -24.6336,   1
   211,' 3          ', 115.0000,1,     0.000,     0.000,   3,   3,1.00153, -23.7339,   1
   212,' 3          ', 138.0000,1,     0.000,     0.000,   3,   3,1.01300, -22.9264,   1
   213,' 3          ',  16.5000,2,     0.000,     0.000,   3,   3,1.01000, -12.0947,   1
   214,' 3          ', 138.0000,1,     0.000,     0.000,   3,   3,0.99184, -17.9535,   1
   215,' 3          ', 138.0000,1,     0.000,     0.000,   3,   3,0.98655, -20.6541,   1
   216,' 3          ', 138.0000,1,     0.000,     0.000,   3,   3,0.97501, -22.9505,   1
   217,' 3          ', 138.0000,1,     0.000,     0.000,   3,   3,1.02127, -22.6200,   1
   218,' 3          ', 138.0000,1,     0.000,     0.000,   3,   3,1.00724, -23.0493,   1
   219,' 3          ', 345.0000,1,     0.000,     0.000,   3,   3,1.05502, -21.5695,   1
   220,' 3          ', 138.0000,2,     0.000,     0.000,   3,   3,1.00800, -22.1484,   1
   221,' 3          ', 138.0000,2,     0.000,     0.000,   3,   3,1.00000, -22.9124,   1
...
 0 /End of Bus data, Begin Load data
     1,'BL',1,   1,   1,    90.000,    49.000,     0.000,     0.000,     0.000,     0.000,   1
     2,'BL',1,   1,   1,    56.000,    15.000,     0.000,     0.000,     0.000,     0.000,   1
     3,'BL',1,   1,   1,    20.000,     0.000,     0.000,     0.000,     0.000,     0.000,   1
     5,'BL',1,   1,   1,   353.000,   130.000,     0.000,     0.000,     0.000,     0.000,   1
     6,'BL',1,   1,   1,   120.000,    41.000,     0.000,     0.000,     0.000,     0.000,   1
     8,'BL',1,   1,   1,    58.000,    14.000,     0.000,     0.000,     0.000,     0.000,   1
     9,'BL',1,   1,   1,    96.000,    43.000,     0.000,     0.000,     0.000,     0.000,   1
    10,'BL',1,   1,   1,   148.000,    33.000,     0.000,     0.000,     0.000,     0.000,   1
    11,'BL',1,   1,   1,    83.000,    21.000,     0.000,     0.000,     0.000,     0.000,   1
    13,'BL',1,   1,   1,    58.000,    10.000,     0.000,     0.000,     0.000,     0.000,   1
    14,'BL',1,   1,   1,   160.000,    60.000,     0.000,     0.000,     0.000,     0.000,   1
    15,'BL',1,   1,   1,   126.700,    23.000,     0.000,     0.000,     0.000,     0.000,   1
    17,'BL',1,   1,   1,   561.000,   220.000,     0.000,     0.000,     0.000,     0.000,   1
    20,'BL',1,   1,   1,   595.000,   120.000,     0.000,     0.000,     0.000,     0.000,   1
    21,'BL',1,   1,   1,    77.000,     1.000,     0.000,     0.000,     0.000,     0.000,   1
    22,'BL',1,   1,   1,    81.000,    23.000,     0.000,     0.000,     0.000,     0.000,   1
    23,'BL',1,   1,   1,    21.000,     7.000,     0.000,     0.000,     0.000,     0.000,   1
    25,'BL',1,   1,   1,    45.000,    12.000,     0.000,     0.000,     0.000,     0.000,   1
    26,'BL',1,   1,   1,    28.000,     9.000,     0.000,     0.000,     0.000,     0.000,   1
    27,'BL',1,   1,   1,    69.000,    13.000,     0.000,     0.000,     0.000,     0.000,   1
    33,'BL',1,   1,   1,    55.000,     6.000,     0.000,     0.000,     0.000,     0.000,   1
    37,'BL',1,   1,   1,    85.000,    32.000,     0.000,     0.000,     0.000,     0.000,   1
    38,'BL',1,   1,   1,   155.000,    18.000,     0.000,     0.000,     0.000,     0.000,   1
    40,'BL',1,   1,   1,    46.000,   -21.000,     0.000,     0.000,     0.000,     0.000,   1
    41,'BL',1,   1,   1,    86.000,     0.000,     0.000,     0.000,     0.000,     0.000,   1
    43,'BL',1,   1,   1,    39.000,     9.000,     0.000,     0.000,     0.000,     0.000,   1
    44,'BL',1,   1,   1,   195.000,    29.000,     0.000,     0.000,     0.000,     0.000,   1
    47,'BL',1,   1,   1,    58.000,    11.800,     0.000,     0.000,     0.000,     0.000,   1
    48,'BL',1,   1,   1,    41.000,    19.000,     0.000,     0.000,     0.000,     0.000,   1
    49,'BL',1,   1,   1,    92.000,    26.000,     0.000,     0.000,     0.000,     0.000,   1
    51,'BL',1,   1,   1,    -5.000,     5.000,     0.000,     0.000,     0.000,     0.000,   1
    52,'BL',1,   1,   1,    61.000,    28.000,     0.000,     0.000,     0.000,     0.000,   1
    53,'BL',1,   1,   1,    69.000,     3.000,     0.000,     0.000,     0.000,     0.000,   1
    54,'BL',1,   1,   1,    10.000,     1.000,     0.000,     0.000,     0.000,     0.000,   1
    55,'BL',1,   1,   1,    22.000,    10.000,     0.000,     0.000,     0.000,     0.000,   1
    57,'BL',1,   1,   1,    98.000,    20.000,     0.000,     0.000,     0.000,     0.000,   1
    58,'BL',1,   1,   1,    14.000,     1.000,     0.000,     0.000,     0.000,     0.000,   1
    59,'BL',1,   1,   1,   218.000,   106.000,     0.000,     0.000,     0.000,     0.000,   1
    61,'BL',1,   1,   1,   227.000,   110.000,     0.000,     0.000,     0.000,     0.000,   1
    63,'BL',1,   1,   1,    70.000,    30.000,     0.000,     0.000,     0.000,     0.000,   1
    70,'BL',1,   1,   1,    56.000,    20.000,     0.000,     0.000,     0.000,     0.000,   1
    71,'BL',1,   1,   1,   116.000,    38.000,     0.000,     0.000,     0.000,     0.000,   1
    72,'BL',1,   1,   1,    57.000,    19.000,     0.000,     0.000,     0.000,     0.000,   1
    73,'BL',1,   1,   1,   224.000,    71.000,     0.000,     0.000,     0.000,     0.000,   1
    76,'BL',1,   1,   1,   208.000,   107.000,     0.000,     0.000,     0.000,     0.000,   1
    77,'BL',1,   1,   1,    74.000,    28.000,     0.000,     0.000,     0.000,     0.000,   1
    79,'BL',1,   1,   1,    48.000,    14.000,     0.000,     0.000,     0.000,     0.000,   1
    80,'BL',1,   1,   1,    28.000,     7.000,     0.000,     0.000,     0.000,     0.000,   1
    84,'BL',1,   1,   1,    37.000,    13.000,     0.000,     0.000,     0.000,     0.000,   1
    89,'BL',1,   1,   1,    44.200,     0.000,     0.000,     0.000,     0.000,     0.000,   1
    90,'BL',1,   1,   1,    66.000,     0.000,     0.000,     0.000,     0.000,     0.000,   1
    91,'BL',1,   1,   1,    17.400,     0.000,     0.000,     0.000,     0.000,     0.000,   1
    92,'BL',1,   1,   1,    15.800,     0.000,     0.000,     0.000,     0.000,     0.000,   1
    94,'BL',1,   1,   1,    60.300,     0.000,     0.000,     0.000,     0.000,     0.000,   1
    97,'BL',1,   1,   1,    39.900,     0.000,     0.000,     0.000,     0.000,     0.000,   1
    98,'BL',1,   1,   1,    66.700,     0.000,     0.000,     0.000,     0.000,     0.000,   1
    99,'BL',1,   1,   1,    83.500,     0.000,     0.000,     0.000,     0.000,     0.000,   1
   102,'BL',1,   1,   1,    77.800,     0.000,     0.000,     0.000,     0.000,     0.000,   1
   103,'BL',1,   1,   1,    32.000,     0.000,     0.000,     0.000,     0.000,     0.000,   1
   104,'BL',1,   1,   1,     8.600,     0.000,     0.000,     0.000,     0.000,     0.000,   1
   105,'BL',1,   1,   1,    49.600,     0.000,     0.000,     0.000,     0.000,     0.000,   1
   107,'BL',1,   1,   1,     4.600,     0.000,     0.000,     0.000,     0.000,     0.000,   1
   108,'BL',1,   1,   1,   112.100,     0.000,     0.000,     0.000,     0.000,     0.000,   1
   109,'BL',1,   1,   1,    30.700,     0.000,     0.000,     0.000,     0.000,     0.000,   1
   110,'BL',1,   1,   1,    63.000,     0.000,     0.000,     0.000,     0.000,     0.000,   1
   112,'BL',1,   1,   1,    19.600,     0.000,     0.000,     0.000,     0.000,     0.000,   1
   113,'BL',1,   1,   1,    26.200,     0.000,     0.000,     0.000,     0.000,     0.000,   1
   114,'BL',1,   1,   1,    18.200,     0.000,     0.000,     0.000,     0.000,     0.000,   1
   118,'BL',1,   2,   2,    14.100,   650.000,     0.000,     0.000,     0.000,     0.000,   1
   121,'BL',1,   2,   2,   535.000,    55.000,     0.000,     0.000,     0.000,     0.000,   1
   122,'BL',1,   2,   2,   229.100,    11.800,     0.000,     0.000,     0.000,     0.000,   1
   123,'BL',1,   2,   2,    78.000,     1.400,     0.000,     0.000,     0.000,     0.000,   1
   124,'BL',1,   2,   2,   276.400,    59.300,     0.000,     0.000,     0.000,     0.000,   1
   125,'BL',1,   2,   2,   514.800,    82.700,     0.000,     0.000,     0.000,     0.000,   1
   126,'BL',1,   2,   2,    57.900,     5.100,     0.000,     0.000,     0.000,     0.000,   1
   127,'BL',1,   2,   2,   380.800,    37.000,     0.000,     0.000,     0.000,     0.000,   1
   135,'BL',1,   2,   2,   169.200,    41.600,     0.000,     0.000,     0.000,     0.000,   1
   136,'BL',1,   2,   2,    55.200,    18.200,     0.000,     0.000,     0.000,     0.000,   1
   137,'BL',1,   2,   2,   273.600,    99.800,     0.000,     0.000,     0.000,     0.000,   1
   138,'BL',1,   2,   2,   826.700,   135.200,     0.000,     0.000,     0.000,     0.000,   1
   139,'BL',1,   2,   2,   595.000,    83.300,     0.000,     0.000,     0.000,     0.000,   1
   140,'BL',1,   2,   2,   387.700,   114.700,     0.000,     0.000,     0.000,     0.000,   1
   141,'BL',1,   2,   2,   145.000,    58.000,     0.000,     0.000,     0.000,     0.000,   1
   142,'BL',1,   2,   2,    56.500,    24.500,     0.000,     0.000,     0.000,     0.000,   1
   143,'BL',1,   2,   2,    89.500,    35.500,     0.000,     0.000,     0.000,     0.000,   1
   145,'BL',1,   2,   2,    24.000,    14.000,     0.000,     0.000,     0.000,     0.000,   1
   148,'BL',1,   2,   2,    63.000,    25.000,     0.000,     0.000,     0.000,     0.000,   1
   152,'BL',1,   2,   2,    17.000,     9.000,     0.000,     0.000,     0.000,     0.000,   1
   154,'BL',1,   2,   2,    70.000,     5.000,     0.000,     0.000,     0.000,     0.000,   1
   155,'BL',1,   2,   2,   200.000,    50.000,     0.000,     0.000,     0.000,     0.000,   1
   156,'BL',1,   2,   2,    75.000,    50.000,     0.000,     0.000,     0.000,     0.000,   1
   157,'BL',1,   2,   2,   123.500,   -24.300,     0.000,     0.000,     0.000,     0.000,   1
   159,'BL',1,   2,   2,    33.000,    16.500,     0.000,     0.000,     0.000,     0.000,   1
   161,'BL',1,   2,   2,    35.000,    15.000,     0.000,     0.000,     0.000,     0.000,   1
   162,'BL',1,   2,   2,    85.000,    24.000,     0.000,     0.000,     0.000,     0.000,   1
   163,'BL',1,   2,   2,     0.000,     0.400,     0.000,     0.000,     0.000,     0.000,   1
   167,'BL',1,   2,   2,   299.900,    95.700,     0.000,     0.000,     0.000,     0.000,   1
   170,'BL',1,   2,   2,   481.800,   205.000,     0.000,     0.000,     0.000,     0.000,   1
   171,'BL',1,   2,   2,   763.600,   291.100,     0.000,     0.000,     0.000,     0.000,   1
   172,'BL',1,   2,   2,    26.500,     0.000,     0.000,     0.000,     0.000,     0.000,   1
   173,'BL',1,   2,   2,   163.500,    43.000,     0.000,     0.000,     0.000,     0.000,   1
   175,'BL',1,   2,   2,   176.000,    83.000,     0.000,     0.000,     0.000,     0.000,   1
   176,'BL',1,   2,   2,     5.000,     4.000,     0.000,     0.000,     0.000,     0.000,   1
   177,'BL',1,   2,   2,    28.000,    12.000,     0.000,     0.000,     0.000,     0.000,   1
   178,'BL',1,   2,   2,   427.400,   173.600,     0.000,     0.000,     0.000,     0.000,   1
   179,'BL',1,   2,   2,    74.000,    29.000,     0.000,     0.000,     0.000,     0.000,   1
   180,'BL',1,   2,   2,    69.500,    49.300,     0.000,     0.000,     0.000,     0.000,   1
   181,'BL',1,   2,   2,    73.400,     0.000,     0.000,     0.000,     0.000,     0.000,   1
   182,'BL',1,   2,   2,   240.700,    89.000,     0.000,     0.000,     0.000,     0.000,   1
   183,'BL',1,   2,   2,    40.000,     4.000,     0.000,     0.000,     0.000,     0.000,   1
   184,'BL',1,   2,   2,   136.800,    16.600,     0.000,     0.000,     0.000,     0.000,   1
   186,'BL',1,   2,   2,    59.800,    24.300,     0.000,     0.000,     0.000,     0.000,   1
   187,'BL',1,   2,   2,    59.800,    24.300,     0.000,     0.000,     0.000,     0.000,   1
   188,'BL',1,   2,   2,   182.600,    43.600,     0.000,     0.000,     0.000,     0.000,   1
   189,'BL',1,   3,   3,     7.000,     2.000,     0.000,     0.000,     0.000,     0.000,   1
   191,'BL',1,   3,   3,   489.000,    53.000,     0.000,     0.000,     0.000,     0.000,   1
   192,'BL',1,   3,   3,   800.000,    72.000,     0.000,     0.000,     0.000,     0.000,   1
   196,'BL',1,   3,   3,    10.000,     3.000,     0.000,     0.000,     0.000,     0.000,   1
   197,'BL',1,   3,   3,    43.000,    14.000,     0.000,     0.000,     0.000,     0.000,   1
   198,'BL',1,   3,   3,    64.000,    21.000,     0.000,     0.000,     0.000,     0.000,   1
   199,'BL',1,   3,   3,    35.000,    12.000,     0.000,     0.000,     0.000,     0.000,   1
   200,'BL',1,   3,   3,    27.000,    12.000,     0.000,     0.000,     0.000,     0.000,   1
   201,'BL',1,   1,   1,    41.000,    14.000,     0.000,     0.000,     0.000,     0.000,   1
   202,'BL',1,   3,   3,    38.000,    13.000,     0.000,     0.000,     0.000,     0.000,   1
   203,'BL',1,   3,   3,    42.000,    14.000,     0.000,     0.000,     0.000,     0.000,   1
   204,'BL',1,   3,   3,    72.000,    24.000,     0.000,     0.000,     0.000,     0.000,   1
   205,'BL',1,   3,   3,     0.000,    -5.000,     0.000,     0.000,     0.000,     0.000,   1
   206,'BL',1,   3,   3,    12.000,     2.000,     0.000,     0.000,     0.000,     0.000,   1
   207,'BL',1,   1,   1,   -21.000,   -14.200,     0.000,     0.000,     0.000,     0.000,   1
   208,'BL',1,   3,   3,     7.000,     2.000,     0.000,     0.000,     0.000,     0.000,   1
   209,'BL',1,   3,   3,    38.000,    13.000,     0.000,     0.000,     0.000,     0.000,   1
   211,'BL',1,   3,   3,    96.000,     7.000,     0.000,     0.000,     0.000,     0.000,   1
   214,'BL',1,   3,   3,    22.000,    16.000,     0.000,     0.000,     0.000,     0.000,   1
   215,'BL',1,   3,   3,    47.000,    26.000,     0.000,     0.000,     0.000,     0.000,   1
   216,'BL',1,   3,   3,   176.000,   105.000,     0.000,     0.000,     0.000,     0.000,   1
   217,'BL',1,   3,   3,   100.000,    75.000,     0.000,     0.000,     0.000,     0.000,   1
   218,'BL',1,   3,   3,   131.000,    96.000,     0.000,     0.000,     0.000,     0.000,   1
   220,'BL',1,   3,   3,   285.000,   100.000,     0.000,     0.000,     0.000,     0.000,   1
   221,'BL',1,   3,   3,   171.000,    70.000,     0.000,     0.000,     0.000,     0.000,   1
   222,'BL',1,   3,   3,   328.000,   188.000,     0.000,     0.000,     0.000,     0.000,   1
   223,'BL',1,   3,   3,   428.000,   232.000,     0.000,     0.000,     0.000,     0.000,   1
   224,'BL',1,   3,   3,   173.000,    99.000,     0.000,     0.000,     0.000,     0.000,   1
   225,'BL',1,   3,   3,   410.000,    40.000,     0.000,     0.000,     0.000,     0.000,   1
   227,'BL',1,   3,   3,   538.000,   369.000,     0.000,     0.000,     0.000,     0.000,   1
   228,'BL',1,   3,   3,   223.000,   148.000,     0.000,     0.000,     0.000,     0.000,   1
   229,'BL',1,   3,   3,    96.000,    46.000,     0.000,     0.000,     0.000,     0.000,   1
   231,'BL',1,   3,   3,   159.000,   107.000,     0.000,     0.000,     0.000,     0.000,   1
   232,'BL',1,   3,   3,   448.000,   143.000,     0.000,     0.000,     0.000,     0.000,   1
   233,'BL',1,   3,   3,   404.000,   212.000,     0.000,     0.000,     0.000,     0.000,   1
   234,'BL',1,   3,   3,   572.000,   244.000,     0.000,     0.000,     0.000,     0.000,   1
   235,'BL',1,   3,   3,   269.000,   157.000,     0.000,     0.000,     0.000,     0.000,   1
   238,'BL',1,   3,   3,   255.000,   149.000,     0.000,     0.000,     0.000,     0.000,   1
   243,'BL',1,   3,   3,     8.000,     3.000,     0.000,     0.000,     0.000,     0.000,   1
   245,'BL',1,   3,   3,    61.000,    30.000,     0.000,     0.000,     0.000,     0.000,   1
   246,'BL',1,   3,   3,    77.000,    33.000,     0.000,     0.000,     0.000,     0.000,   1
   247,'BL',1,   3,   3,    61.000,    30.000,     0.000,     0.000,     0.000,     0.000,   1
   248,'BL',1,   3,   3,    29.000,    14.000,     0.000,     0.000,     0.000,     0.000,   1
   249,'BL',1,   3,   3,    29.000,    14.000,     0.000,     0.000,     0.000,     0.000,   1
   250,'BL',1,   3,   3,   -23.000,   -17.000,     0.000,     0.000,     0.000,     0.000,   1
   281,'BL',1,   3,   3,   -33.100,   -29.400,     0.000,     0.000,     0.000,     0.000,   1
   319,'BL',1,   1,   1,   115.800,   -24.000,     0.000,     0.000,     0.000,     0.000,   1
   320,'BL',1,   1,   1,     2.400,   -12.600,     0.000,     0.000,     0.000,     0.000,   1
   322,'BL',1,   1,   1,     2.400,    -3.900,     0.000,     0.000,     0.000,     0.000,   1
   323,'BL',1,   1,   1,   -14.900,    26.500,     0.000,     0.000,     0.000,     0.000,   1
   324,'BL',1,   1,   1,    24.700,    -1.200,     0.000,     0.000,     0.000,     0.000,   1
   526,'BL',1,   1,   1,   145.300,   -34.900,     0.000,     0.000,     0.000,     0.000,   1
   528,'BL',1,   1,   1,    28.100,   -20.500,     0.000,     0.000,     0.000,     0.000,   1
   531,'BL',1,   1,   1,    14.000,     2.500,     0.000,     0.000,     0.000,     0.000,   1
   552,'BL',1,   1,   1,   -11.100,    -1.400,     0.000,     0.000,     0.000,     0.000,   1
   562,'BL',1,   1,   1,    50.500,    17.400,     0.000,     0.000,     0.000,     0.000,   1
   609,'BL',1,   1,   1,    29.600,     0.600,     0.000,     0.000,     0.000,     0.000,   1
   664,'BL',1,   3,   3,  -113.700,    76.700,     0.000,     0.000,     0.000,     0.000,   1
  9003,'BL',1,   1,   9,     2.710,     0.940,     0.000,     0.000,     0.000,     0.000,   1
  9004,'BL',1,   1,   9,     0.860,     0.280,     0.000,     0.000,     0.000,     0.000,   1
  9021,'BL',1,   1,   9,     4.750,     1.560,     0.000,     0.000,     0.000,     0.000,   1
  9022,'BL',1,   1,   9,     1.530,     0.530,     0.000,     0.000,     0.000,     0.000,   1
  9024,'BL',1,   1,   9,     1.350,     0.470,     0.000,     0.000,     0.000,     0.000,   1
  9025,'BL',1,   1,   9,     0.450,     0.160,     0.000,     0.000,     0.000,     0.000,   1
  9026,'BL',1,   1,   9,     0.450,     0.160,     0.000,     0.000,     0.000,     0.000,   1
  9031,'BL',1,   1,   9,     1.840,     0.640,     0.000,     0.000,     0.000,     0.000,   1
  9032,'BL',1,   1,   9,     1.390,     0.480,     0.000,     0.000,     0.000,     0.000,   1
  9033,'BL',1,   1,   9,     1.890,     0.650,     0.000,     0.000,     0.000,     0.000,   1
  9034,'BL',1,   1,   9,     1.550,     0.540,     0.000,     0.000,     0.000,     0.000,   1
  9035,'BL',1,   1,   9,     1.660,     0.580,     0.000,     0.000,     0.000,     0.000,   1
  9036,'BL',1,   1,   9,     3.030,     1.000,     0.000,     0.000,     0.000,     0.000,   1
  9037,'BL',1,   1,   9,     1.860,     0.640,     0.000,     0.000,     0.000,     0.000,   1
  9038,'BL',1,   1,   9,     2.580,     0.890,     0.000,     0.000,     0.000,     0.000,   1
  9041,'BL',1,   1,   9,     1.010,     0.350,     0.000,     0.000,     0.000,     0.000,   1
  9042,'BL',1,   1,   9,     0.810,     0.280,     0.000,     0.000,     0.000,     0.000,   1
  9043,'BL',1,   1,   9,     1.600,     0.520,     0.000,     0.000,     0.000,     0.000,   1
  9052,'BL',1,   1,   9,    30.000,    23.000,     0.000,     0.000,     0.000,     0.000,   1
  9071,'BL',1,   1,   9,     1.020,     0.350,     0.000,     0.000,     0.000,     0.000,   1
  9072,'BL',1,   1,   9,     1.020,     0.350,     0.000,     0.000,     0.000,     0.000,   1
  9121,'BL',1,   1,   9,     3.800,     1.250,     0.000,     0.000,     0.000,     0.000,   1
  9533,'BL',1,   1,   9,     1.190,     0.410,     0.000,     0.000,     0.000,     0.000,   1
 0 /End of Load data, Begin Generator data
     8,'1 ',    -5.000,    10.000,    10.000,   -10.000,1.01530,     0,   100.000,   0.00000,   1.00000,   0.00000,   0.00000,1.00000,1,  100.0,  9999.000, -9999.000,   1,1.0000
    10,'1 ',    -5.000,    20.000,    20.000,   -20.000,1.02050,     0,   100.000,   0.00000,   1.00000,   0.00000,   0.00000,1.00000,1,  100.0,  9999.000, -9999.000,   1,1.0000
    20,'1 ',   -10.000,    20.000,    20.000,   -20.000,1.00100,     0,   100.000,   0.00000,   1.00000,   0.00000,   0.00000,1.00000,1,  100.0,  9999.000, -9999.000,   1,1.0000
    63,'1 ',     0.000,    24.477,    25.000,   -25.000,0.95830,     0,   100.000,   0.00000,   1.00000,   0.00000,   0.00000,1.00000,1,  100.0,  9999.000, -9999.000,   1,1.0000
    76,'1 ',     0.000,    35.000,    35.000,    12.000,0.96320,     0,   100.000,   0.00000,   1.00000,   0.00000,   0.00000,1.00000,1,  100.0,  9999.000, -9999.000,   1,1.0000
    84,'1 ',   375.000,   133.306,   240.000,  -240.000,1.02500,     0,   100.000,   0.00000,   1.00000,   0.00000,   0.00000,1.00000,1,  100.0,  9999.000, -9999.000,   1,1.0000
    91,'1 ',   155.000,    45.613,    96.000,   -11.000,1.05200,     0,   100.000,   0.00000,   1.00000,   0.00000,   0.00000,1.00000,1,  100.0,  9999.000, -9999.000,   1,1.0000
    92,'1 ',   290.000,    31.907,   153.000,  -153.000,1.05200,     0,   100.000,   0.00000,   1.00000,   0.00000,   0.00000,1.00000,1,  100.0,  9999.000, -9999.000,   1,1.0000
    98,'1 ',    68.000,   -10.224,    56.000,   -30.000,1.00000,     0,   100.000,   0.00000,   1.00000,   0.00000,   0.00000,1.00000,1,  100.0,  9999.000, -9999.000,   1,1.0000
   108,'1 ',   117.000,    21.683,    77.000,   -24.000,0.99000,     0,   100.000,   0.00000,   1.00000,   0.00000,   0.00000,1.00000,1,  100.0,  9999.000, -9999.000,   1,1.0000
   119,'1 ',  1930.000,  1291.672,  1500.000,  -500.000,1.04350,     0,   100.000,   0.00000,   1.00000,   0.00000,   0.00000,1.00000,1,  100.0,  9999.000, -9999.000,   1,1.0000
   124,'1 ',   240.000,   120.000,   120.000,   -60.000,1.02330,     0,   100.000,   0.00000,   1.00000,   0.00000,   0.00000,1.00000,1,  100.0,  9999.000, -9999.000,   1,1.0000
   125,'1 ',     0.000,   200.000,   200.000,   -25.000,1.01030,     0,   100.000,   0.00000,   1.00000,   0.00000,   0.00000,1.00000,1,  100.0,  9999.000, -9999.000,   1,1.0000
   138,'1 ',  -925.030,   350.000,   350.000,  -125.000,1.05500,     0,   100.000,   0.00000,   1.00000,   0.00000,   0.00000,1.00000,1,  100.0,  9999.000, -9999.000,   1,1.0000
   141,'1 ',   281.000,    70.009,    75.000,   -50.000,1.05100,     0,   100.000,   0.00000,   1.00000,   0.00000,   0.00000,1.00000,1,  100.0,  9999.000, -9999.000,   1,1.0000
   143,'1 ',   696.000,   125.355,   300.000,  -100.000,1.04350,     0,   100.000,   0.00000,   1.00000,   0.00000,   0.00000,1.00000,1,  100.0,  9999.000, -9999.000,   1,1.0000
   146,'1 ',    84.000,    35.000,    35.000,   -15.000,1.05280,     0,   100.000,   0.00000,   1.00000,   0.00000,   0.00000,1.00000,1,  100.0,  9999.000, -9999.000,   1,1.0000
   147,'1 ',   217.000,   -47.656,   100.000,   -50.000,1.05280,     0,   100.000,   0.00000,   1.00000,   0.00000,   0.00000,1.00000,1,  100.0,  9999.000, -9999.000,   1,1.0000
   149,'1 ',   103.000,    50.000,    50.000,   -25.000,1.07350,     0,   100.000,   0.00000,   1.00000,   0.00000,   0.00000,1.00000,1,  100.0,  9999.000, -9999.000,   1,1.0000
   152,'1 ',   372.000,   -47.506,   175.000,   -50.000,1.05350,     0,   100.000,   0.00000,   1.00000,   0.00000,   0.00000,1.00000,1,  100.0,  9999.000, -9999.000,   1,1.0000
   153,'1 ',   216.000,   -18.648,    90.000,   -50.000,1.04350,     0,   100.000,   0.00000,   1.00000,   0.00000,   0.00000,1.00000,1,  100.0,  9999.000, -9999.000,   1,1.0000
   156,'1 ',     0.000,    15.000,    15.000,   -10.000,0.96300,     0,   100.000,   0.00000,   1.00000,   0.00000,   0.00000,1.00000,1,  100.0,  9999.000, -9999.000,   1,1.0000
   170,'1 ',   205.000,    90.000,    90.000,   -40.000,0.92900,     0,   100.000,   0.00000,   1.00000,   0.00000,   0.00000,1.00000,1,  100.0,  9999.000, -9999.000,   1,1.0000
   171,'1 ',     0.000,   150.000,   150.000,   -50.000,0.98290,     0,   100.000,   0.00000,   1.00000,   0.00000,   0.00000,1.00000,1,  100.0,  9999.000, -9999.000,   1,1.0000
   176,'1 ',   228.000,    40.353,    90.000,   -45.000,1.05220,     0,   100.000,   0.00000,   1.00000,   0.00000,   0.00000,1.00000,1,  100.0,  9999.000, -9999.000,   1,1.0000
   177,'1 ',    84.000,    35.000,    35.000,   -15.000,1.00770,     0,   100.000,   0.00000,   1.00000,   0.00000,   0.00000,1.00000,1,  100.0,  9999.000, -9999.000,   1,1.0000
   185,'1 ',   200.000,    53.984,    80.000,   -50.000,1.05220,     0,   100.000,   0.00000,   1.00000,   0.00000,   0.00000,1.00000,1,  100.0,  9999.000, -9999.000,   1,1.0000
   186,'1 ',  1200.000,   321.198,   400.000,  -100.000,1.06500,     0,   100.000,   0.00000,   1.00000,   0.00000,   0.00000,1.00000,1,  100.0,  9999.000, -9999.000,   1,1.0000
   187,'1 ',  1200.000,   399.064,   400.000,  -100.000,1.06500,     0,   100.000,   0.00000,   1.00000,   0.00000,   0.00000,1.00000,1,  100.0,  9999.000, -9999.000,   1,1.0000
   190,'1 ',   475.000,   -51.210,   300.000,  -300.000,1.05510,     0,   100.000,   0.00000,   1.00000,   0.00000,   0.00000,1.00000,1,  100.0,  9999.000, -9999.000,   1,1.0000
   191,'1 ',  1973.000,   689.520,  1000.000, -1000.000,1.04350,     0,   100.000,   0.00000,   1.00000,   0.00000,   0.00000,1.00000,1,  100.0,  9999.000, -9999.000,   1,1.0000
   198,'1 ',   424.000,   101.361,   260.000,  -260.000,1.01500,     0,   100.000,   0.00000,   1.00000,   0.00000,   0.00000,1.00000,1,  100.0,  9999.000, -9999.000,   1,1.0000
   213,'1 ',   272.000,    44.132,   150.000,  -150.000,1.01000,     0,   100.000,   0.00000,   1.00000,   0.00000,   0.00000,1.00000,1,  100.0,  9999.000, -9999.000,   1,1.0000
   220,'1 ',   100.000,    37.065,    60.000,   -60.000,1.00800,     0,   100.000,   0.00000,   1.00000,   0.00000,   0.00000,1.00000,1,  100.0,  9999.000, -9999.000,   1,1.0000
   221,'1 ',   450.000,   168.757,   320.000,  -320.000,1.00000,     0,   100.000,   0.00000,   1.00000,   0.00000,   0.00000,1.00000,1,  100.0,  9999.000, -9999.000,   1,1.0000
   222,'1 ',   250.000,   144.023,   300.000,  -300.000,1.05000,     0,   100.000,   0.00000,   1.00000,   0.00000,   0.00000,1.00000,1,  100.0,  9999.000, -9999.000,   1,1.0000
   227,'1 ',   303.000,   254.350,   300.000,  -300.000,1.00000,     0,   100.000,   0.00000,   1.00000,   0.00000,   0.00000,1.00000,1,  100.0,  9999.000, -9999.000,   1,1.0000
   230,'1 ',   345.000,    42.848,   250.000,  -250.000,1.04000,     0,   100.000,   0.00000,   1.00000,   0.00000,   0.00000,1.00000,1,  100.0,  9999.000, -9999.000,   1,1.0000
   233,'1 ',   300.000,   133.130,   500.000,  -500.000,1.00000,     0,   100.000,   0.00000,   1.00000,   0.00000,   0.00000,1.00000,1,  100.0,  9999.000, -9999.000,   1,1.0000
   236,'1 ',   600.000,   300.000,   300.000,  -300.000,1.01650,     0,   100.000,   0.00000,   1.00000,   0.00000,   0.00000,1.00000,1,  100.0,  9999.000, -9999.000,   1,1.0000
   238,'1 ',   250.000,   164.798,   200.000,  -200.000,1.01000,     0,   100.000,   0.00000,   1.00000,   0.00000,   0.00000,1.00000,1,  100.0,  9999.000, -9999.000,   1,1.0000
   239,'1 ',   550.000,    68.385,   400.000,  -400.000,1.00000,     0,   100.000,   0.00000,   1.00000,   0.00000,   0.00000,1.00000,1,  100.0,  9999.000, -9999.000,   1,1.0000
   241,'1 ',   574.780,   -32.711,   600.000,  -600.000,1.05000,     0,   100.000,   0.00000,   1.00000,   0.00000,   0.00000,1.00000,1,  100.0,  9999.000, -9999.000,   1,1.0000
   242,'1 ',   170.000,    52.402,   100.000,    40.000,0.99300,     0,   100.000,   0.00000,   1.00000,   0.00000,   0.00000,1.00000,1,  100.0,  9999.000, -9999.000,   1,1.0000
   243,'1 ',    84.000,    52.324,    80.000,    40.000,1.01000,     0,   100.000,   0.00000,   1.00000,   0.00000,   0.00000,1.00000,1,  100.0,  9999.000, -9999.000,   1,1.0000
  7001,'1 ',   467.000,   147.793,   210.000,  -210.000,1.05070,     0,   100.000,   0.00000,   1.00000,   0.00000,   0.00000,1.00000,1,  100.0,  9999.000, -9999.000,   1,1.0000
  7002,'1 ',   623.000,   103.323,   280.000,  -280.000,1.05070,     0,   100.000,   0.00000,   1.00000,   0.00000,   0.00000,1.00000,1,  100.0,  9999.000, -9999.000,   1,1.0000
  7003,'1 ',  1210.000,   420.000,   420.000,  -420.000,1.03230,     0,   100.000,   0.00000,   1.00000,   0.00000,   0.00000,1.00000,1,  100.0,  9999.000, -9999.000,   1,1.0000
  7011,'1 ',   234.000,    56.783,   100.000,  -100.000,1.01450,     0,   100.000,   0.00000,   1.00000,   0.00000,   0.00000,1.00000,1,  100.0,  9999.000, -9999.000,   1,1.0000
  7012,'1 ',   372.000,   208.275,   224.000,  -224.000,1.05070,     0,   100.000,   0.00000,   1.00000,   0.00000,   0.00000,1.00000,1,  100.0,  9999.000, -9999.000,   1,1.0000
  7017,'1 ',   330.000,   350.000,   350.000,     0.000,1.05070,     0,   100.000,   0.00000,   1.00000,   0.00000,   0.00000,1.00000,1,  100.0,  9999.000, -9999.000,   1,1.0000
  7023,'1 ',   185.000,     8.276,   120.000,     0.000,1.05070,     0,   100.000,   0.00000,   1.00000,   0.00000,   0.00000,1.00000,1,  100.0,  9999.000, -9999.000,   1,1.0000
  7024,'1 ',   410.000,   109.527,   224.000,  -224.000,1.02900,     0,   100.000,   0.00000,   1.00000,   0.00000,   0.00000,1.00000,1,  100.0,  9999.000, -9999.000,   1,1.0000
  7039,'1 ',   500.000,   158.692,   200.000,  -200.000,1.05000,     0,   100.000,   0.00000,   1.00000,   0.00000,   0.00000,1.00000,1,  100.0,  9999.000, -9999.000,   1,1.0000
  7044,'1 ',    37.000,    41.660,    42.000,     0.000,1.01450,     0,   100.000,   0.00000,   1.00000,   0.00000,   0.00000,1.00000,1,  100.0,  9999.000, -9999.000,   1,1.0000
  7049,'1 ',   462.086,    40.959,     0.000,     0.000,1.05070,     0,   100.000,   0.00000,   1.00000,   0.00000,   0.00000,1.00000,1,  100.0,  9999.000, -9999.000,   1,1.0000
  7055,'1 ',    45.000,    24.914,    25.000,     0.000,0.99670,     0,   100.000,   0.00000,   1.00000,   0.00000,   0.00000,1.00000,1,  100.0,  9999.000, -9999.000,   1,1.0000
  7057,'1 ',   165.000,    89.291,    90.000,   -90.000,1.02120,     0,   100.000,   0.00000,   1.00000,   0.00000,   0.00000,1.00000,1,  100.0,  9999.000, -9999.000,   1,1.0000
  7061,'1 ',   400.000,   121.008,   150.000,  -150.000,1.01450,     0,   100.000,   0.00000,   1.00000,   0.00000,   0.00000,1.00000,1,  100.0,  9999.000, -9999.000,   1,1.0000
  7062,'1 ',   400.000,   147.436,   150.000,     0.000,1.00170,     0,   100.000,   0.00000,   1.00000,   0.00000,   0.00000,1.00000,1,  100.0,  9999.000, -9999.000,   1,1.0000
  7071,'1 ',   116.000,    87.000,    87.000,     0.000,0.98930,     0,   100.000,   0.00000,   1.00000,   0.00000,   0.00000,1.00000,1,  100.0,  9999.000, -9999.000,   1,1.0000
  7130,'1 ',  1292.000,   364.529,   600.000,  -100.000,1.05070,     0,   100.000,   0.00000,   1.00000,   0.00000,   0.00000,1.00000,1,  100.0,  9999.000, -9999.000,   1,1.0000
  7139,'1 ',   700.000,   292.688,   325.000,  -125.000,1.05070,     0,   100.000,   0.00000,   1.00000,   0.00000,   0.00000,1.00000,1,  100.0,  9999.000, -9999.000,   1,1.0000
  7166,'1 ',   553.000,   142.217,   300.000,  -200.000,1.01450,     0,   100.000,   0.00000,   1.00000,   0.00000,   0.00000,1.00000,1,  100.0,  9999.000, -9999.000,   1,1.0000
  9002,'1 ',    -4.200,     2.000,     2.000,    -2.000,0.99450,     0,   100.000,   0.00000,   1.00000,   0.00000,   0.00000,1.00000,1,  100.0,  9999.000, -9999.000,   1,1.0000
  9051,'1 ',   -35.810,    15.462,    17.350,   -17.350,1.00000,     0,   100.000,   0.00000,   1.00000,   0.00000,   0.00000,1.00000,1,  100.0,  9999.000, -9999.000,   1,1.0000
  9053,'1 ',   -26.480,    11.329,    12.830,   -12.800,1.00000,     0,   100.000,   0.00000,   1.00000,   0.00000,   0.00000,1.00000,1,  100.0,  9999.000, -9999.000,   1,1.0000
  9054,'1 ',    50.000,    19.850,    38.000,   -38.000,1.00000,     0,   100.000,   0.00000,   1.00000,   0.00000,   0.00000,1.00000,1,  100.0,  9999.000, -9999.000,   1,1.0000
  9055,'1 ',     8.000,     3.663,     6.000,    -6.000,1.00000,     0,   100.000,   0.00000,   1.00000,   0.00000,   0.00000,1.00000,1,  100.0,  9999.000, -9999.000,   1,1.0000
 0 /End of Generator data, Begin Branch data
     1,      5,'1 ',   0.00100,   0.00600,   0.00000,    0.00,    0.00,    0.00,  0.00000,  0.00000,  0.00000,  0.00000,1,   0.00,   1,1.0000
     2,      6,'1 ',   0.00100,   0.00900,   0.00000,    0.00,    0.00,    0.00,  0.00000,  0.00000,  0.00000,  0.00000,1,   0.00,   1,1.0000
     2,      8,'1 ',   0.00600,   0.02700,   0.05400,    0.00,    0.00,    0.00,  0.00000,  0.00000,  0.00000,  0.00000,1,   0.00,   1,1.0000
     3,      7,'1 ',   0.00000,   0.00300,   0.00000,    0.00,    0.00,    0.00,  0.00000,  0.00000,  0.00000,  0.00000,1,   0.00,   1,1.0000
     3,     19,'1 ',   0.00800,   0.06900,   0.13900,    0.00,    0.00,    0.00,  0.00000,  0.00000,  0.00000,  0.00000,1,   0.00,   1,1.0000
     3,    150,'1 ',   0.00100,   0.00700,   0.00000,    0.00,    0.00,    0.00,  0.00000,  0.00000,  0.00000,  0.00000,1,   0.00,   1,1.0000
     4,     16,'1 ',   0.00200,   0.01900,   1.12700,    0.00,    0.00,    0.00,  0.00000,  0.00000,  0.00000,  0.00000,1,   0.00,   1,1.0000
     5,      9,'1 ',   0.00600,   0.02900,   0.01800,    0.00,    0.00,    0.00,  0.00000,  0.00000,  0.00000,  0.00000,1,   0.00,   1,1.0000
     7,     12,'1 ',   0.00100,   0.00900,   0.07000,    0.00,    0.00,    0.00,  0.00000,  0.00000,  0.00000,  0.00000,1,   0.00,   1,1.0000
     7,    131,'1 ',   0.00100,   0.00700,   0.01400,    0.00,    0.00,    0.00,  0.00000,  0.00000,  0.00000,  0.00000,1,   0.00,   1,1.0000
     8,     11,'1 ',   0.01300,   0.05950,   0.03300,    0.00,    0.00,    0.00,  0.00000,  0.00000,  0.00000,  0.00000,1,   0.00,   1,1.0000
     8,     14,'1 ',   0.01300,   0.04200,   0.08100,    0.00,    0.00,    0.00,  0.00000,  0.00000,  0.00000,  0.00000,1,   0.00,   1,1.0000
     9,     11,'1 ',   0.00600,   0.02700,   0.01300,    0.00,    0.00,    0.00,  0.00000,  0.00000,  0.00000,  0.00000,1,   0.00,   1,1.0000
    11,     13,'1 ',   0.00800,   0.03400,   0.01800,    0.00,    0.00,    0.00,  0.00000,  0.00000,  0.00000,  0.00000,1,   0.00,   1,1.0000
    12,     21,'1 ',   0.00200,   0.01500,   0.11800,    0.00,    0.00,    0.00,  0.00000,  0.00000,  0.00000,  0.00000,1,   0.00,   1,1.0000
    13,     20,'1 ',   0.00600,   0.03400,   0.01600,    0.00,    0.00,    0.00,  0.00000,  0.00000,  0.00000,  0.00000,1,   0.00,   1,1.0000
    14,     15,'1 ',   0.01400,   0.04200,   0.09700,    0.00,    0.00,    0.00,  0.00000,  0.00000,  0.00000,  0.00000,1,   0.00,   1,1.0000
    15,     37,'1 ',   0.06500,   0.24800,   0.12100,    0.00,    0.00,    0.00,  0.00000,  0.00000,  0.00000,  0.00000,1,   0.00,   1,1.0000
    15,     89,'1 ',   0.09900,   0.24800,   0.03500,    0.00,    0.00,    0.00,  0.00000,  0.00000,  0.00000,  0.00000,1,   0.00,   1,1.0000
    15,     90,'1 ',   0.09600,   0.36300,   0.04800,    0.00,    0.00,    0.00,  0.00000,  0.00000,  0.00000,  0.00000,1,   0.00,   1,1.0000
    16,     42,'1 ',   0.00200,   0.02200,   1.28000,    0.00,    0.00,    0.00,  0.00000,  0.00000,  0.00000,  0.00000,1,   0.00,   1,1.0000
    19,     21,'1 ',   0.00200,   0.01800,   0.03600,    0.00,    0.00,    0.00,  0.00000,  0.00000,  0.00000,  0.00000,1,   0.00,   1,1.0000
    19,     87,'1 ',   0.01300,   0.08000,   0.15100,    0.00,    0.00,    0.00,  0.00000,  0.00000,  0.00000,  0.00000,1,   0.00,   1,1.0000
    20,     22,'1 ',   0.01600,   0.03300,   0.01500,    0.00,    0.00,    0.00,  0.00000,  0.00000,  0.00000,  0.00000,1,   0.00,   1,1.0000
    20,     27,'1 ',   0.06900,   0.18600,   0.09800,    0.00,    0.00,    0.00,  0.00000,  0.00000,  0.00000,  0.00000,1,   0.00,   1,1.0000
    21,     24,'1 ',   0.00400,   0.03400,   0.28000,    0.00,    0.00,    0.00,  0.00000,  0.00000,  0.00000,  0.00000,1,   0.00,   1,1.0000
    22,     23,'1 ',   0.05200,   0.11100,   0.05000,    0.00,    0.00,    0.00,  0.00000,  0.00000,  0.00000,  0.00000,1,   0.00,   1,1.0000
    23,     25,'1 ',   0.01900,   0.03900,   0.01800,    0.00,    0.00,    0.00,  0.00000,  0.00000,  0.00000,  0.00000,1,   0.00,   1,1.0000
    24,    319,'1 ',   0.00700,   0.06800,   0.13400,    0.00,    0.00,    0.00,  0.00000,  0.00000,  0.00000,  0.00000,1,   0.00,   1,1.0000
    25,     26,'1 ',   0.03600,   0.07100,   0.03400,    0.00,    0.00,    0.00,  0.00000,  0.00000,  0.00000,  0.00000,1,   0.00,   1,1.0000
    26,     27,'1 ',   0.04500,   0.12000,   0.06500,    0.00,    0.00,    0.00,  0.00000,  0.00000,  0.00000,  0.00000,1,   0.00,   1,1.0000
    26,    320,'1 ',   0.04300,   0.13000,   0.01400,    0.00,    0.00,    0.00,  0.00000,  0.00000,  0.00000,  0.00000,1,   0.00,   1,1.0000
    33,     34,'1 ',   0.00000,   0.06300,   0.00000,    0.00,    0.00,    0.00,  0.00000,  0.00000,  0.00000,  0.00000,1,   0.00,   1,1.0000
    33,     38,'1 ',   0.00250,   0.01200,   0.01300,    0.00,    0.00,    0.00,  0.00000,  0.00000,  0.00000,  0.00000,1,   0.00,   1,1.0000
    33,     40,'1 ',   0.00600,   0.02900,   0.02000,    0.00,    0.00,    0.00,  0.00000,  0.00000,  0.00000,  0.00000,1,   0.00,   1,1.0000
    33,     41,'1 ',   0.00700,   0.04300,   0.02600,    0.00,    0.00,    0.00,  0.00000,  0.00000,  0.00000,  0.00000,1,   0.00,   1,1.0000
    34,     42,'1 ',   0.00100,   0.00800,   0.04200,    0.00,    0.00,    0.00,  0.00000,  0.00000,  0.00000,  0.00000,1,   0.00,   1,1.0000
    35,     72,'1 ',   0.01200,   0.06000,   0.00800,    0.00,    0.00,    0.00,  0.00000,  0.00000,  0.00000,  0.00000,1,   0.00,   1,1.0000
    35,     76,'1 ',   0.00600,   0.01400,   0.00200,    0.00,    0.00,    0.00,  0.00000,  0.00000,  0.00000,  0.00000,1,   0.00,   1,1.0000
    35,     77,'1 ',   0.01000,   0.02900,   0.00300,    0.00,    0.00,    0.00,  0.00000,  0.00000,  0.00000,  0.00000,1,   0.00,   1,1.0000
    36,     88,'1 ',   0.00400,   0.02700,   0.04300,    0.00,    0.00,    0.00,  0.00000,  0.00000,  0.00000,  0.00000,1,   0.00,   1,1.0000
    37,     38,'1 ',   0.00800,   0.04700,   0.00800,    0.00,    0.00,    0.00,  0.00000,  0.00000,  0.00000,  0.00000,1,   0.00,   1,1.0000
    37,     40,'1 ',   0.02200,   0.06400,   0.00700,    0.00,    0.00,    0.00,  0.00000,  0.00000,  0.00000,  0.00000,1,   0.00,   1,1.0000
    37,     41,'1 ',   0.01000,   0.03600,   0.02000,    0.00,    0.00,    0.00,  0.00000,  0.00000,  0.00000,  0.00000,1,   0.00,   1,1.0000
    37,     49,'1 ',   0.01700,   0.08100,   0.04800,    0.00,    0.00,    0.00,  0.00000,  0.00000,  0.00000,  0.00000,1,   0.00,   1,1.0000
    37,     89,'1 ',   0.10200,   0.25400,   0.03300,    0.00,    0.00,    0.00,  0.00000,  0.00000,  0.00000,  0.00000,1,   0.00,   1,1.0000
    37,     90,'1 ',   0.04700,   0.12700,   0.01600,    0.00,    0.00,    0.00,  0.00000,  0.00000,  0.00000,  0.00000,1,   0.00,   1,1.0000
    38,     41,'1 ',   0.00800,   0.03700,   0.02000,    0.00,    0.00,    0.00,  0.00000,  0.00000,  0.00000,  0.00000,1,   0.00,   1,1.0000
    38,     43,'1 ',   0.03200,   0.08700,   0.04000,    0.00,    0.00,    0.00,  0.00000,  0.00000,  0.00000,  0.00000,1,   0.00,   1,1.0000
    39,     42,'1 ',   0.00060,   0.00640,   0.40400,    0.00,    0.00,    0.00,  0.00000,  0.00000,  0.00000,  0.00000,1,   0.00,   1,1.0000
    40,     48,'1 ',   0.02600,   0.15400,   0.02200,    0.00,    0.00,    0.00,  0.00000,  0.00000,  0.00000,  0.00000,1,   0.00,   1,1.0000
    41,     42,'1 ',   0.00000,   0.02900,   0.00000,    0.00,    0.00,    0.00,  0.00000,  0.00000,  0.00000,  0.00000,1,   0.00,   1,1.0000
    41,     49,'1 ',   0.06500,   0.19100,   0.02000,    0.00,    0.00,    0.00,  0.00000,  0.00000,  0.00000,  0.00000,1,   0.00,   1,1.0000
    41,     51,'1 ',   0.03100,   0.08900,   0.03600,    0.00,    0.00,    0.00,  0.00000,  0.00000,  0.00000,  0.00000,1,   0.00,   1,1.0000
    42,     46,'1 ',   0.00200,   0.01400,   0.80600,    0.00,    0.00,    0.00,  0.00000,  0.00000,  0.00000,  0.00000,1,   0.00,   1,1.0000
    43,     44,'1 ',   0.02600,   0.07200,   0.03500,    0.00,    0.00,    0.00,  0.00000,  0.00000,  0.00000,  0.00000,1,   0.00,   1,1.0000
    43,     48,'1 ',   0.09500,   0.26200,   0.03200,    0.00,    0.00,    0.00,  0.00000,  0.00000,  0.00000,  0.00000,1,   0.00,   1,1.0000
    43,     53,'1 ',   0.01300,   0.03900,   0.01600,    0.00,    0.00,    0.00,  0.00000,  0.00000,  0.00000,  0.00000,1,   0.00,   1,1.0000
    44,     47,'1 ',   0.02700,   0.08400,   0.03900,    0.00,    0.00,    0.00,  0.00000,  0.00000,  0.00000,  0.00000,1,   0.00,   1,1.0000
    44,     54,'1 ',   0.02800,   0.08400,   0.03700,    0.00,    0.00,    0.00,  0.00000,  0.00000,  0.00000,  0.00000,1,   0.00,   1,1.0000
    45,     60,'1 ',   0.00700,   0.04100,   0.31200,    0.00,    0.00,    0.00,  0.00000,  0.00000,  0.00000,  0.00000,1,   0.00,   1,1.0000
    45,     74,'1 ',   0.00900,   0.05400,   0.41100,    0.00,    0.00,    0.00,  0.00000,  0.00000,  0.00000,  0.00000,1,   0.00,   1,1.0000
    46,     81,'1 ',   0.00500,   0.04200,   0.69000,    0.00,    0.00,    0.00,  0.00000,  0.00000,  0.00000,  0.00000,1,   0.00,   1,1.0000
    47,     73,'1 ',   0.05200,   0.14500,   0.07300,    0.00,    0.00,    0.00,  0.00000,  0.00000,  0.00000,  0.00000,1,   0.00,   1,1.0000
    47,    113,'1 ',   0.04300,   0.11800,   0.01300,    0.00,    0.00,    0.00,  0.00000,  0.00000,  0.00000,  0.00000,1,   0.00,   1,1.0000
    48,    107,'1 ',   0.02500,   0.06200,   0.00700,    0.00,    0.00,    0.00,  0.00000,  0.00000,  0.00000,  0.00000,1,   0.00,   1,1.0000
    49,     51,'1 ',   0.03100,   0.09400,   0.04300,    0.00,    0.00,    0.00,  0.00000,  0.00000,  0.00000,  0.00000,1,   0.00,   1,1.0000
    51,     52,'1 ',   0.03700,   0.10900,   0.04900,    0.00,    0.00,    0.00,  0.00000,  0.00000,  0.00000,  0.00000,1,   0.00,   1,1.0000
    52,     55,'1 ',   0.02700,   0.08000,   0.03600,    0.00,    0.00,    0.00,  0.00000,  0.00000,  0.00000,  0.00000,1,   0.00,   1,1.0000
    53,     54,'1 ',   0.02500,   0.07300,   0.03500,    0.00,    0.00,    0.00,  0.00000,  0.00000,  0.00000,  0.00000,1,   0.00,   1,1.0000
    54,     55,'1 ',   0.03500,   0.10300,   0.04700,    0.00,    0.00,    0.00,  0.00000,  0.00000,  0.00000,  0.00000,1,   0.00,   1,1.0000
    55,     57,'1 ',   0.06500,   0.16900,   0.08200,    0.00,    0.00,    0.00,  0.00000,  0.00000,  0.00000,  0.00000,1,   0.00,   1,1.0000
    57,     58,'1 ',   0.04600,   0.08000,   0.03600,    0.00,    0.00,    0.00,  0.00000,  0.00000,  0.00000,  0.00000,1,   0.00,   1,1.0000
    57,     63,'1 ',   0.15900,   0.53700,   0.07100,    0.00,    0.00,    0.00,  0.00000,  0.00000,  0.00000,  0.00000,1,   0.00,   1,1.0000
    58,     59,'1 ',   0.00900,   0.02600,   0.00500,    0.00,    0.00,    0.00,  0.00000,  0.00000,  0.00000,  0.00000,1,   0.00,   1,1.0000
    59,     61,'1 ',   0.00200,   0.01300,   0.01500,    0.00,    0.00,    0.00,  0.00000,  0.00000,  0.00000,  0.00000,1,   0.00,   1,1.0000
    60,     62,'1 ',   0.00900,   0.06500,   0.48500,    0.00,    0.00,    0.00,  0.00000,  0.00000,  0.00000,  0.00000,1,   0.00,   1,1.0000
    62,     64,'1 ',   0.01600,   0.10500,   0.20300,    0.00,    0.00,    0.00,  0.00000,  0.00000,  0.00000,  0.00000,1,   0.00,   1,1.0000
...